a:4:{s:4:"hash";s:0:"";s:5:"mtime";i:1730810232;s:6:"expire";i:9999999999;s:4:"tags";s:37:"69d_CONFIG_SCOPES,69d_CONFIG,69d_MAGE";}
0:3:ybUjiG2bshnb6Q1AjQW14eogDkkzAYpRvC+k+9nm1VHFp3BwT1qFIXGIyPB7b4Li7ESvd5Pf3f2QhUxVzVSqVd+DaAFoLBGLpmjUc+XbuDuMUBt+6jUH0gPr9LDEgCYEW4hrIG3NT586CIAsDGqs9EDiA0wN3AM4Ewh4RQZO/j/ejBvFjOl+vNFe5aT0Sx/6ykdcRjdI228frq25vDaV8D1Wo5NppEBlyStzppD02t/vTKG/fA7yQxZfOoCN5r7bkFc4ePqRTLCjwExQ0XlqWKBKbhQqcxcZ7YAZ8NsolA6DsQONuGdWB1ha6hcsP+DOpYHTpkyKRit94AkbhjHDamzc1+DycxIK95tBiYmwSQ1SnaRnzLQcTm1m95gHyc30ZmAccaeWnuyt0K9sDNqFnZ3Gpyvolyft/KCs3UiUFPFL9a5bjJ3HzjnZphlDcmCkKFhh7te19yv0oflm4IKVNUMKb2p/+s1chReMBfVPkpyIitz7MRjkA50sjMQvZ2cwBNy0w0CPtmppZZ2DmrSm1uPX5SMGkbhuem4fnaEgHa7h/CioHGhMD8U4hxTlR/gdUE1MgOosnZ88ehU0pwXQHkDxOG0Y0cmdvN8dJ3W2daWkw5Tk3C4f2VWPcVD+q3UmBwaqW2xZ+uvbvd4FAGaSKJn9RE7Z4QkMYX0yVjKbZI149fbP81y6OYta8Nb0LY8xrYjcxZdroBXBgoIFI8eD5Sngag44c66YAkDGRdI5/RwX6UgKObugB4WJlaSFXsx4gPbk8JgmDp58NBBAAzxAfeqkLybt6V6WFX7V4lbg5RBqpUXxhTYRP7H2Vs0TQs8Ynmkz/KA2El/XzioURXWIoWeHTu9QQ2NmmotOsVW5uedkKO90dVOpq4JB89mejja4gpERLqWMMCbfK90Qg+N+gKS/t891Ad/gTxBGuyxx/tfdzywuIUoVnxj9yW5kep71MJtqCiq+PzaiL3dmjWKcAUmc6bOl03aMcdHNv7qEHzSw4NLl/jYm06zQeHhrA2hAR9fHVniiayNXWyIGf+Vv4+6vIJ6JRsZIXkTvYZaPyg87to4yNgn7M73Aft48k5W6w6n0hjJxzrAFx+bTvraFQliab87ib/MT3Dp4pMjkDxHA3itfPkvWSNfBGgtgMeMTuq/Ty4DBegVh3YFkgOePWCug7bo9ou3XXtx54dSM1ggadL4DuciPRdduqL4CQddItu6IJI/82HZm87HKBN73GcJVc9MGExI2OVM4Ii8vkAJEZqw0nVpbe9sPYuZG8Xbf8VoKbMbazjaaRtos+L0X9fPxOPZ+5Mll45hEWh5qdWQzjJQFGLu+wpWxAiw9FzPLZdTgO+Q5bHYaDyhGfeHpWrBokqR/22GJ6B4LQn7f3z93y35fcbinai4GGbGitDiUTEAnesWuhUqdT7/xumwySAIl4dVymZJCZkNNOu1SuOmAs9Gy2Zvy6bcqGKTluAzSO/ijldzIweSSjsgmtJM6sqKJsI2SRc2sg1HAGkYQl7n3r4JiZmvSM8WTzGZc6A9zpGDUeAzvOtnQhnWkCjYca3zYUeNEC5nV6jWERDoBfFMHO81JaxrqRC1X/MDhQVM+aaA7QBp+UWBRljPbRGrO1ztFt1pmxpl5vVtZav6E9JmRWOgoxfcXLhIPgDl8va3FXF6rRa+oucwSvwLqcfKh0MR0pLf1JAJbESWTOUY9bmLYRCT+WRG8nhlDIXZMCynhWZ2ClzccHHpOxmGNIbq8WbuRwZn5+XOQ8t4dlid6rWJ6E6oOFpZOKf6vllPfIRcRWEvzWqnntlHaxR7rf5+c7P2hdvZXYn2atwkel6yXmnRFKOksWEtQZQ1VfvdjJ/gFcbGpDrHQn3XZ9D4k0aQ+pMWjImCjHH24C8KXfx+8/tGR9uFGJNFttUIVXZb9psg/WE7zg5Hm+j53u8sHykiV1WNLFgxyIS20yJvNtG0/szQdg+4aUfkw/Hu/jKWp6wv2fJu3/lz6+NhmRWRLpmX/m3FxDT0sArULK87iZgxyeWvf94L8E96omBcYMI2qhPH0OlsXXmn7rSEoFsTtpQrPK7Hm0NHBs2DIcq0u2mJThMP9Zhw13yFUvsFEf72+AxReOAW7lHWQfCWrTqTmM59CUfunEMXV78ndR695n74CCNXdnG3A1C6N6QvvRgpKWl1IvGWmYOStsjmk+Gri9NUM6hkncLWoVhDhS42S+ouRBrHBmrsLjhChV+92/OFG0mGh4925vDI91+oOW3hfQ6Bd671/knJ34wHAPssx3g/XpHwb+TARO2tA1FI+cc4vAJHETX1Or9VNIPn178IZvyhumuo8bWsTKI/eLOa/eN/yeABBSgB/sTCcTSuf6Nh2oKrgwSQqb+irn753IrXLhF/bnVH0zaT6zniyfizqUwH8h9Zt7z2rnoJQX8g7Rjya6dRmy1uyBnurdw1PIlSWRDKYqu0/jkDttxMe9inXBrzjjXoKxldljKl//yaKNmWuO4VuA4XCfiYNgT7JREMFhtanrq+ZAr0POFRdXlRYvP4cRDkVcj0jRfKd82ZDWNR+xwhP8IXfVlc1zS1zuJ+sQ5CcN853FT3zci6lzoHeg+verdY5eUU3F4o3i3WOUpo3bCfBVx90PbrgaL/oniTh2xft7tEQUIpq2DJwSYFablwhL8q6ifJKDm7KQiIyMb5kfiaragVuH/+6aORpz6IVCcoYsaxVkEJVTof61gOnBkk2cvf7IiPr0W3rEV8YANlKY9Wlil+7tLDz53m7weZloiPhhToDxUKNaRfacgfeq46ZP198KY9g6fdu4cZFMOpHAx+Bof3xClSQJ1ramrHnjbAwUnCO40haAqNJQTeXTWw4GCR0VDEOO9pXAI7i9e81mFyT+SyS1g2ENOsc1Rcv8MzUZLigxsJFEzhBC3DL0GJIgh02KjOPrB9zhFqow7A7qvVKUxqQ3v7+OTdNWMryeg5lzHqKW/8JIMyke+wpwqFN+N57NBA44hRQYnhgZM5G0khLTe4cCJPv4Z65iOdpdEk+HihiyjF396iMiK/ymW4BIA8vp4wJ3tdpMRXLx69NOR6pNj42OOPD9InppYkN8b3La14o7ON3WX1lIdibY+G8FsQPDn+0rmu0qTF+w4xb8CSOZz81zr5p9RjAnAVP7XxWJrr1/EhlQx+EM7KsxtndEiVSjC1Nm1LuG/tEUGrKBAWn8AMCOtqJ79gSK1AKUzLS8RWWthFVJxhC0L/8WDby/JPiYEAjFdrsRP7bSs3BkcAUUW6T9rbFkkGdhxtt415ZDRIMKJcajtDq3dSVBqP/lVgrfV77o7VmAPXwAmkrXS8Yi35DVY65tV3/SffRw7P73gFh5ifjwNk+CumA6+Jc0fjYU0ERtEhrjLtQsVWAyOhF5Pp30wDzkvZiwzeyuJzRdbaZeKJ0kKYtAq0jbXwnFt7Ju1mlOy7HcOzUDpHH/zWtUq1erVoNphD7qXiv9ZRXkCODwo+R0PYbXz6KXvQmwQRHGeScBrtIwyPrSttOs2/qvvIuZ06RVpaD4zX3J6QPNa3f/J3Zj+zmvN17mOFJNFZU3/4xPQY5d6bDKN/pHHOBM+buz77ZKZrCu+duTv2TCU7zDNZVGpAWVvamdGtFRkQILVKqs1TuPC4qJvBEUbQZA+LTF0PHYcBmPSY1QStlefpTE+R7dNXrA3xjcZHBpV/2ygYevRQydpfMcPwDyGnn9TQ+BWgn7Lp72/Jvuy/eLygIMdlVxejdf8mILiUHlKLcAYOfg8IaR/hBNwt/jp8IfrEMYu70Grwpf1fsQp+K4U3A+bL8MUaaD0xU9gJE9h4xLGNelfTNsWuMIx0y8XOM0np1PU2rKyBnmIf6hkE9taSzQCNXNzo23CC7Sj+0xlruXKW8kF33z45W+r2X/2hSGMPihVo+sW/gDZGhrvOXelpnoEBdj+BfK9bpmYZW55KK4SP/lLez0PDXpJUoIQK9LLaWN7LfY7ig5EXyL4eUtPSI/fKrR1D1qsfeYumOCxlVSTvd0MTY56eWsOANB0xnihQ/0e3vxVQ4MQKYkKzDSPKYrU1NQ5y4mojYAIEsQ/1THChYYSR3WAJi/WunCUL9rrwhzHP4UrtcHV9fZ4EgM+q3WY7CRSOWMQFQs0NMveqUxaLXlN5MQSp2g/2XHpagjYtcc9it4zjdLQvHjcB2WcWMcY4AJ+Y6S3DX+2k69esc463y5ofsQWMNMZogmq24kugviUqjj3bqiS8Svb6W2YapGTD+yrh6/Yl8bBL/5gYUhDBBQVOuNiSIYrOou5SePCNXHDXc5jOj6zoiHFpBWrhvj0sdnIMYKRyPzLNVtxsv8fyDKMk+eL0u6ILTXhKP0UelIQ/qT0iQ5QIwSFm/d7ZDjFU/DHjbpwSfNn/y41zreb8N95dLiT9wJ9/1WvLisNn0RwclVJtTU0uo1KMD8X8N+OBZmZSRP5uaCHuptCazTejpL7k8YwP4OlsRxf2/4D1LcWbSlCVemgzFseQiBr/+D71U801lHkp9d9S2OfLBhnFT8HKxmfTlwaaEhk6l5vnfOTmNCD9i3dOk4bw583uWFrBeH4n3dJPAy7pTnxQJHTuEntphqrelYGuS6/oh+fmRdB+yVIfOEoOLkg/iiKoo6gN5kK0sElqJZokpttud0OBEsq0MSF7FWzd68Y4DrsyUtaS2NM1w1RjCvwk+ZC++z9+1LmId+Lmblo4PhHHgIgVKB5sgYFqqDbV1HbXWfOpe+abN9+f8baoKfP+4Y4a+bdvjrITgrY2+5pi5OptbOx7MHqynm3MtFcZuGGdMp4rbOh1USKfsklj//uHaD+xWbpOEECQLb1eyr7NlsVr28fw/ZkIHRwPnf77RetbKXrU8g1j9tKE7xlRHvDeBcjlyIZCDkKE0wS06t4PE/I1w7TNjvYXYn0aP5GSv6RN0IFzszfkrMMe4uVjRxNv6cqYUlbrX3YFCNFlrdzDrneH5IHXHMdDGUAuycvYnxkmE96YguiohB8ksovTlUBtEXZbeezVisqTa3J/nHzS65u0DXLZRqbm9iCyvTUCqBJSg7cdEoWJ63jA9skrbcHC+O3gaKBTpj75OVSlEpfr2Mi7ykJcitmIsa9DJiyX8URyDdxwC+wFATejC3xpCvjhVLFRBWL8GTlpS5wqqfTK0b5wQQDAx8TM8vT90B6czpjjVbEKPy9E/mN920uunduUPi3iF86d78GwZAEcXkdF1DPzJtYouBc30DdCwLNUH1NOc3YE++LIMqeL7TYrUCM/pcRuvylEo1T1hKdF3GuSd9PJEUOwAcX0LLGZu2+3r8mlaxZeRJoKVL4iwJy9vuzJ5hU/gkZJiZ1hmSJP5UkFVVCx/RGetEZjUQekECVQFQoln5QSbRWJzMHjVAA4qbDZh+SwprPfKWe75T3hdsVKAq4Q2Ys8g27qNpW9/ESioH+Xk2uoJ+PHzvz/jMwDlHHaS3Z1fxZVRSusqv2MT9HPTt7Th5rEe/5T4VJSOjqr4k4a9hq6UN1S0JsB8K9VwWdFkG6JKSZViMxGiBucHvsVBmztC+gHMangOLgD8iCGama+POVB+I7VOeDH/6sfF4HjoYjJBQ9vli03Q9wFwa3k+gkSs3YDMeYDNivFK8U4aAs8e4BN074fSEfwW6MssSg1UPDuM5TAZL69egBAH8Vd2+w+2lm54wr86xIDWEPBSmU/AMAfzQWEcf2rNpROIUe0pgXyGGzfDy9XPlAd6O5ib2S5v71Hc+HYI/pUqvo8e7Qa/sBhEBf4R+MRRx9fIlGmhtgF34ZMt8/HwXVydNE6N6Ys8V8s6RSs47h2RqnOAnP7wrf8DzWeDN8a5Y/n7LJuelw+22ITEl2GV6furgZcBnibjQkqq0M49GkKi3dSxOfao5a/0pVmscG05DxNGKh+UXViTGjYbIhZqNB96r4we/S14fV+/frAFojp4fHUSiurExsme9jkBT7Xltc20Us+95b8MbxIpFyPWwj+D4gkIY/DcBbBcheZ9un40fe2/T9bK5YQt0eTIKWAppNU0qx/wlEi/xw2GiXqOPYD3fsLjHg9Qyo2PGdzXGlAqHi7xFCsBsJMHc5g0g1WD8Dfw+Fv1k7XnJiK4dgyy5Fq3z/VF74QXYsfVrwX3SXygI+YMz1Gd38HLFhIkCr5XgeeNDZtWkBwQaeasYPJmxkzHxmoGkLJn9Cz9A90iD7WK3yju475yn7FRgPEPIi5TuRDj/CutcZAx65V5E1Yg0VaeYOneyVs7cM1upAJjs4fi4gJxbV4VwdUdTalXcvzXyJi61/CYJaU0ovpJBDq3Ro7XvmzRqgSTjnfSCvSyApABmFgjOoBs8S1WC6u+4e6+nFFaAVPGWYd/piIbAgwjk/71wOZXWnXkDrZ52K/gHIWZ8SIh7JQNvQh73ZQNVshItE469pbO6Er07N0CCIDagrGfstPY/iFwx9vYJTzx0wuLKPyhCHBb1s+s6IdhUSjxfLNmGClOXAlNt1CgbxvuBjEjmaclgbOl2uJSmAWC/FzJGSgoWBD/a+pY3QmD8jL3EiY3DomPCFsmnKGr1tV7SHUkqJQSI/K8DcQV6M8YQlcd41I0ZTj6m7DWitxeC99tlmjtmHZahRZuhmIGOCEzIuPlT0P0isMwzgJYUjIOjTWQM7LFygHej0hWSRckWyPBfRJ33qut1RjfNpAy+S6Di3aTFti6O9jmqAfhUVDSOPDPcypFAnjxI4n0//WtZ5op00P6H4jJqjywUcPGPmRXBFpmMlBD3RngqI0Oy3IZcj2Lknxgs06bePT7pnn9JGHivXwWxymswxoJjDNMdJxXUfnnImJBUkMvUK+4w8qT3Hf/4/b/aG5gayTfHNI0m07f/Kq2N0k8G5xN0LLcpUVBkx9eb65g4ZEcKCb7INN6XvKIr5jOTPhjhg+I30ujRjasAEz/YgwNBhhHrAMKoqRGpK4v/1mR4+seOrQ2/i5mcjiiYhOghQ+au+EcwtGbpKaBvzxu9gdC9c31nzyJfdTOdVio0lIePD3RgL3euVxLkUrQGo1ofZubOg5xayE+WLgAHeuuD+LRvUmRMZKGRl8CHQX12cocIRiRowTNpWw7ewqBR3SbMhOgeL0RjYtPR9k7z/ChoCoHghOpL4z64nD7GQnmVFsliLm1cUxRMuvyzxMvJip0o1PYiV3bZFY+uaeh8OfEy38eKYzsnM2fj+3MDLBm4s0OxdkHRsCLgi03PbldlQ+mmCYsPLWMbWAZDrPRs7879vFPdC0kRt0YT2wUiHXx3Vdmf5Qeqb3mwCnmN5odbSHjL7ZRI9E0/oCuNAm+WedrpxHXd9O6ZJqyqdrVkCUnPJvOWsdhQ7oFS4IMT8EJrZ1z3Vq1ZttvpnO462CfBHtLWBL5PmA/pmw5PMOKUoqYLfmJTkOTMKqQ77aKGgjW+Kl4ZCeFljnauvrljgu9zslcP+t5VAmjEZ4zaNTRsil8Slc/TjxaWQxgKvxVMZuqHGNI2LIPIS6rQGtCcjRLGxL2n+v4J1r8+5NWmFw0gTq0SoVujOrCs1s0JU8GDr7+rmA2TK5bAoHHopm4YmDrIGzxCE7LWcXevSiSUESRERcLRNW7IrUEOgIXCHj0mBS2WE8j0Cz5c3hfP5K2KLYqqMekEVqPdm2+kXZzXSynKyR1NX+4a5ZsQFo5yOaRYo6rhvNK49LIYP6mmtSuoF8yb8O8Vg3qokXCfDLK1e+suBWW44Yv35qJB7wZRRd3l7kXswWDMni9pWJS+QlhXT+rHGyOy7wc1kEIHXtegx0/xCmZ3bBemt1XXgJ3mPKkoejiOJTgk5vyS4ORRO5GiPMxTEZtMW0JQ83ZLKdLj4eNjqZyrH5XZd/tUjBjpWYGYJi+jlpXJ9yllzw6ci3D+O0A5jKpV3pYFAqRDk6f9/VgZg+S3wnRH688mUwR6Z1W/kOsvpwQ84fJuggBe1lYhRfahRaxuQM6xFK0e5d/BErw/X2y3zWKgTqpQdnrsxFs7QavRpORLvgaLI61V1ZupNa7oT7oaxr8LJ6VKgQhrOVL2oLZXw9pWN6RpxZsv0PIypkw6BTeSpA3T2312sviAPgHHZKorL5WVyeFYpDa7P016E1E8J6BOZ9sBLoLlcdqaWo7zaIkGdz+PB+mfGcHpNNuaAkAHlciT0zYpos/Gu4kYQSf2xR3Qe9knVMgjApnvbdJpsCJNB9IfqSw7r8Fr9/iFElHLruiz+YvWbJqbPGOoGxxEMmlgPJA96LM5v6CfNhcAWxs+1vOAo56ZvKimF3e8mF/Gn8w01KI7OsLMB+f5ru2g8Ko3ILQkVsjEzeBoAICxWAclyNySNkgBXtr8GySCrPMoK6ei9UXXYcwPRoXeJ5RCzD1+5ofYsBDr5tDlHY6pEh1ajUJpMkDf3DeH/ytEc2gMXCLGQwHSUSaNvhsU/75lM36YGmL5FOMMY+K+YKl9bjzAjhL+UaaXXJUKTNX9o7Pn8p/WLx3T7/cHMToOBGriFQgsNjEigYaRoRByvqa7im49W+2VintUva3Iak4XrDLXcLDzIQuWlr24B9E+weIy2PrnLPyn5mF2G/v5TasK8cPm6NJarZHHwjC866gIv7UCOt3QMqa8vSsyLxgZX5IIlnkVl/IEC8hkeeH6Tm2wORxaypuqeuwZnhuOR7+Q/Cf8FB+HxwEt8rqlNlDepQE5GB2nXTdGG01DyR+f6cUKlZK82huyKfbxATnKHGxQA7Jph2GimqgIKpQrLCOX524dirNm1E8lcvXdrjPEtYG5GihlD9atggZVUfQwHBGE4rlzMPhNu56lPmR3xH4q6WLmPspgdM8/scXi47lIpz276BMY0ix6cIvXpgW4nHCoOaCtFtvswcb7kxEN5q+9E83AfUp5eXB9KqRTobQef7CnZewQkoUpgQN23QkWqk1B+woU3mDKTElN3M3MFkvx3a+Snp39hLcenKeKxQYu0fhjYYW0yRaER2zJrCGDOFmgstyAge2R0ohzaLe0lp5qbZWrT7TzwYCMAHglCmbxXtLCKd1ObPZm2h3p0dG2ZnwUzSu/w8chWXDl/fvBTZgsNudxE9UFqu1rgqYVCdMDKdHndplhH7vHYd9VbY4tu1uuX2CaHllWPS3El/eu3+iegza/qvmr5dsUN07hlBvRRjAtdb6QWqYApsH5hPAxey4OKS5OBwqdXx6K5sEQ+Z67yLKkAJhOK67P6nripcPw9suMdqcgI4d2tGuhjT2GGKKFI9NpenFcAlO8Lw+QyY6lL5hLMtsKlwyX5hyvzxHLcLHOFrEsDdGW4FSK2LcMaLt3FD8WTz6ek2F6w8p2IPJ1JO3/8Zz8QPwfXR2T7mi1N9xMFPxfqF6aP1dijS3KMyANQ5RBtPAjc1jr9xV2ddNdLGS2y6sGw4IO4NhjX+4epSx2RlqHtdEtcyRI4HYjYlqDeUIH+8JYf9zZW/h1QbzHzV8rXtERnVSLvYoCt0HpUU7J2GVQduU+369OiyP1Vb+Aq8R0oNRQzdXTpsBdyMXOfB84xnoDdBS2r1R0758YY9rTjXMPnhX0BjWIzANa6+Kcoqfoh28+Ugj8k/ihMq/NXVG2QPkoeTcSark8FEzJPy7GWiJJhiUzefOk35ZyPB/Xsl/G1i2Cg5xAjCsCbUnZX9XYI0DdjznMlmQEWpy8APiHiRzO9mnbv0tCQdS7QJNeevrfjkIQ9RTq9JeuUsMPj0jA8xcXYAOtIKT9MSBPK0LW7roK88E+WPMYP+g6ySUe/M5IfD2Gb3cer8MDz0QAg7m3+rR/gyA/Te5MsCC/eqQimfE9owSsAAPyE/Vu+XuSWw8AlnKdZM+zs1Yw1IRQwjgZIxF2PC/wj06VrgiTdnbznEArr5SWn92kqmd8w0r2Ke+cvaQhcNr5NDf9KfJrvQZOJcyGm6/jQsyUoemsAryOS/w0VLVUR/fa6sqCIIaqd5GIlvx1bp1NsQyb6SQYGSp5Z1OvYeX4Ntj2nTBa3yvaeN8OdsS4hgPCl9m5Mfotwjrw6Qo9pXJAaXTF7T57bLIjxVr+nQMftqCTuZyGImE0yQSiP6kvURmINLYzT7uwDaHrKZXjRISQIEbV0yn05ERrm9JTettWxeNXBMZBMNCXQ29BPD+ExotdwLU5zatv62K1Lu5h3s1G95ZQYdJh1X/oC8HsGILIeJG9SiLgEaYiCpszRCFBBNo85XWErH7kvjv52FuMV7aYctNcRojXhdw4KCFSLGUtFHKh41td2q5c08xBmAAdoyjABxDhmOteVF0dezGBFEthoWNUxTX4P/pOwXVZQcvcbtZaspwfCkZVuoRJQAJ1W63+v6rt23NZRUBZKwddioXcBwPtKniiT/zHNwf5q6NU5I6RxS4WzOaI0if9TarMUadkVxdvCj+a8P2D50oW6J5kyjHP6w+OixZoracdd1TAKPM79dR9MbnRrI6MUL831xEUCQa2gmlDYbrTQUtOV5dB/eeotBwbIqT2E7KQxtvSZEenUhZRlsiIwy1J241K9QOzh9tTnBL3Reo5q9sXQH+VsVESZN/c7NCvBx2S63TXXCrx9/XhX/389Eox6x5Is/3mWoaXosUzlyNvejLtGQi6EVTNo9SI1C1WUEajO3rujP/kjiUW85+EERexmLGD0WweAZREuHomT7rEATOV+nbcGOJ7lFFXOAf94ugPPxzu8TKCfx+Qpfrc8xbQ4Ga1VbpcnmuOSR7kAHLlpidN+Cq1A3xeIAQLhdTmxAvHDc/ZFgtexzteHKvo9HwoTHpL+eVP32+NNQP+c+HvzoDQS0d5PD/1xYp5CCbPXQAJxZc7becmOH60CiYHG9GPtbbncaB22QDvQbggYkluuxqZ7+MFvRz1RAiWE6r6CDvV2tsjJPtCQ3KpslS3Oi6INd1MEV3GwkF/vmzTgDYCpnkIwGTINV5vRCQ6dRCy466arnwQSHOZ5Zdl07w1ev0F2jOOjpk8YkRMYzhzZ/DTSnlTZ9AKzVRo2y8hPk1Bb7PsZONjYLSqKIPvppLsAsgDgBL6B80hO2JOgVWdwq62Bcu97NfocqWafHUhF3eI7xH+Ne69DCWUPVadsz8xH/Q+jkVaQp0FgWPxbmmryhsvbG+AdXEcaYOYvQd5yz4wu8Nw32Yh2K2KEYyAsavajDbtB4BEJ5ATXeo8KLBB3r0d9opeRvP+kfxi3GYonCoyGluqUMlSxp7rqHh9KM2g/LEUHYg8fFYM4ovDPbaeui2YzY5933RhyQHW6wau6MI7l8AevXpzooYgBYM85Sue8YgITrFmoAkkAp7HRweX6ghWwPf/UGoZQ9VJd+oZsahMkrVsjYzO+L6oxr9FiE688U/WFCnlRx4vM8J7XjgNvsCqi8Gq51DrmmZ9CFEmMLe2GgcyxleZ4i111fNpEI+vmNKish9I2IZo+YONN22hMeNG9C0hBCQwPp1AjbwKwENxFPmEqU6SLx6m2yWpL/oJJrvyg2hPykLDH61mquN4Qarj3TLHjUXh3JiKsFYeW5qQvNgnDV6swapxvUqyTPOlkzf6piiJLHsSqvYrcXA7aH3upCK+bpC9J+PjLn1sXsi0PpMVbvF1zIaPEul//a17xoB8kOyGMuVoW2fg1Id7xoqnw5Hr6k01KxUAvbFsouSGPaoSWdqD8UbpiusFtskI1BGauq3Ml2OvJQ0tdZCsob8w6+quIY6VL0oiEhSrt4UC5Fbof60FU6pXgoTz9lS2wTzI82V9d7GuIDEncNGV4lRuyWtxYf0KP3ThXTWLpycVhgazPUByvrwnxRoozX6Q4kjVHEkVfV2YreOJA0Zm8QEbJklt7Tqg0ESrzRd2IM9s0CIHDrqcsDIR910INEYeRnJnWiFSBtvARrzbUfY3N7FcsmTzoSRFd4UE4xrhC5w3dQIfaxA4MHeJmRj5IL31GI7WC0bH7psZBeZuHmdYw1B2UThMgEgGcSW0k+juq0qyA7TdDmByBFciwLJG2ov8vBOvbR4OMs+5u6KBu+njvb0y3K7FgwvcDnKVssFLP1fAbIFL3CJ6tvHpIKSGCbKO5kKYcjOREL6H6VrUJ72NFbiNutY0CxLbvPIOx1UdoTUCOWTITdbEpJzIRgSZut8ZQkjnAnBbdzTNq/dhxr2gbJgDvO2YKGNd9l1L98vJGDV+eoh9sD3du0ZyODtp4+BqcU44uCUj4kYAEtkmD6Fa1J1lW+kYICJYoSpWILwineOWGh8vZ9OcN0/4ATRCdZg/D5Ko36xF3doCU/5t1KSXaBnvTmBs+/skZZGntThcoSClwuZEpjTFSA5pB/SuumA2ifCTKR0panfpVy5d6C2utR0OBD2k2swVbGVZAXhdRgam/zmUEmbUEJNT4RcOcWGqoGkuuznM/kCSnV90QDpN9UgeUav2bmmaTH+wilC5zD88gs07c9TcEZYCBnffVxxY0RiMGJiZmCr/OL7KefM8FSXLZ5GMhykpsooY2hG2s3tXx1nmyRjoKilrWQGXrrwg9Lxu0bzPI6itDN+5k4F2c+qYv60h1Ie0FOZNv8YpIF8NZAuR7o5oN0m/79pFYlcdA584qdVbiHEjiIN3fDpmRnE9qIPAAA26WFlHM400/wCDujvpznP3jtuI7TVsIa9Ut3ce6dvYQjgGlodAV+8Yma77n69GNQHHrtfZeaWOuz1wgSRLWbg2kZ/DKkGVxvNhxNuvmVhPKJszyuO3ggd2pgaAnTi8S4GJodzJ6W/inGjLNQ4y9WDBaq1iwWy8GBUrqeYuTMCPeyJM2xWs0hEqzrK37v5/T+JjwOgN99o8Qkmur9mKXDiNFQBld/Bx9aT11dTquWiW6P439KbkB/pvVs6qcCZWqJWIeePv/rLl8gCT871CIaaPD/xT/eDtVmJMKhPkiES/tFXtLx9npTqK8rpfCq0DiRIFnIPZmxh2TWz3JpDokrKjYYb6UoM0C34q+9NfVlQTNinO0Pdfcm8inqAWyKfMKFQv+y++SkVPhxk8h1nTnKx/6l93JB7WWFFli7yln3uMXsZWTyzbBFZYA7E3W3yl6DDMJq2ue173wkWn82tKigdAxhSKkU4ChtWu2vbRWJ4iFji1m6aYBWA1QWO0X4J5m1idCSHWZ9J/pCd0gNDcGDSjhx6Rv2wt0oGOFSdKwSOenPFnH4oAOqhzN6nb+zFnVKMoKiOhdziQlIKhnWf/eDBfoK/EvwrZGqOBE4QJLi0jqUH7cDcAFl5yG4L+g23VrQfF+0dqs9dpPakQQz0v+WrmrsNTGTkaJePioLQU3A++Wk50gkyCo4ag+wmb9hFEGSZvSwY2GNhl/vI39Vo29pBhNVwi/610YOUok8b9usdd6x/Cj4PoJrPtxwzqFwnaIN8g8gTbcCpPln0QXOGWIFhav0C0kDFM4o+puPwwf66lx95XhACSv7dzZOprdf0sSl28IUxkUkR0mAxe5lx/c68KH8DdnfqlDWggwe1YNfR2iuj409hH0VI5ZIuZ8lR0WuOlSIUyhAQvly0n+Sun/Rg9x7MrekG3IrL/paXz25FESRGHhRLcZliXFevTdDDhNQtCsb6dJknjAsiSGHJxXUYhhB0xWpXbLVmc2H+L2yINTTgK8Mk21TnBfd2Nhi+UqKqFdvQvpMr26xiaV7JK5UYg2PUTcjGkZGMbZXjYuWIIdP5nNK3v0xG3js6CO7K6pmlPduPE10EI5B+q2tCXsrZ43LLuJ1ZdJuJh4a5VI65gTAC64C9B/ydVxCmiUwIhKi/XGz8y3rLXg8owkLptt8uXWLQcHKR+AeUodQ6UeJzyQWT4OfMYP5MKKrJl9Nb+/QtYyBSNPwT6D4a9JfJFsjRsuVYEPgB0l4NTV3kkm74xyYiglu2OJgahX7bCcrdf9gohwLvjXqMNBk9tjk5jMpv8A4nr++iUNHjLXXYDeUA2EFHxEXr+6MJt3bseeZ3/DyyoMi+FlYnPIdZGIvHOK57c1xRjGE+QszH+wP5BSWG0xMtqustQPa92RBBWv/k3QRbp8VNOe77L1z4xy2/sIO4Ftd5XmgIAdjO2t3GjHvQg+SmepMqe9aemPDnER2oFAypeXXgRzhwCL+9RStx6kYo1k5VH3kLYV8pfPru1OW588saQV4Meq/pxlQoVhmfBnWQF4OjVFmNC4n88PeDAardMi9v+6UoTwWaAzta96loaKfTuJDdX2c1e4sIWeaU7hl1EKScyuVa9Q9j6lTegQ8GdvVWmJ5o1ARGu9JR5JXhTG0lUwlAb+StwzQ5B0URJAGAdGuIZ8ntx1CPhlqC7rr/m/1ZeXHaVhkiCeIx2XBZRIWNi3+lA52fCyNrZDJXPnXpNWTMErX/ANnNdWirmfRC5HdZm9YPwvbOj7ud9A4UI6I4e+OaugPRwdY7AuUZfBNnOrQP3C+z2kemLJD3N1v+joaxB+gYqwkCUP42zvv3zZ0x9Nrs9IQqoq0TaCy1HSB6MqyKOtgJcp2QLnfhU9DyNxkmKOaORO9Bp20H2GRFy5F2sKmm5Mvs/xrnFj/i/PSpLbVdKOEslyAjl1hPqpK96+UskIBjxwXHh6hzMVeggf3rO7EUFQiRVQRUc+A4+W1NBJ5ndXpD/JPowfsN379tInIY5OmEZ+W4s3cI/7Bxv9Ju+r+ADyv6aqlmk8DqMv+xy48aeLjTY3zqRBiYdm1dRUXszpXAJJJU/mRQrJvALLvf3oNYbt+Q1NqBCBW+oCm95sgtx5+7+jfoYWeFBFpgCN+HEdK1hCPOc4u/8/wTY0jfO8JNLxuSuZ9G30X+WyhtEP7k5hQH6P2hiNVhfPI4pTiTctzcqo6tmOoFZ9zK/qCkHug7hn51lFdVZED3qdrH0TlyDfvgpgxK1Q4COTGkvLcOGOKYMcyf6KahkE57qeA/IhYeG6j3/i3n8mgbEGzJTHd0jevGd5iUia1a3DVtd5F7/k/Ap3ivWuAySRqXKhnQyr+NGaRy3EMGdHvwmg3FhwYtakVqgjgokuoBpboNrTJoTr9kp48ExevfG02KxvxVgLQht6YqVX26O9Cl8jJjKb2ax09dyST6beBjKezoeGerBt3kEjUMSV/IUuN4ZtJI38GaNqKeB1MMYU4dleY3DGE5NOYhwdHZ+DvJ1z+v48jhR2WeovQYQxUoNDMgoJPhTz9AmK8hx/Us+TnA3bMlkfZhzVZn4iJkZiHhtRdxxAg7miLWv9IkQK+xvx7Q7xfkdt1P4jFu5m+xqxkfd4AANBHXlW2iQyUbCWDFABIg2q92fxS77ckXXP+FsHElfZHR3qAX2bVyoDd6GJhPUeo02Z83vbZc261lVGT08+DU6uh5wSUv91KFNJsup/7gbXfOakk/xVOo273oJkJ99SJZc758GNwlKB+1KsHuSXPD7TxBvNfxId4s0zdpyv3cSG9HgGN3UZCcGJY0c307uYtZlQthixEfHhjRoHe26VXE22o1uqrMnzBHVyRgTS4KXJC5cyE1yrSrxDhUPBeVuMDHp5kWIfYJNNrUMNZ9AZ2v5RoIT4Jj/LbJIDrSpSMuogfRQqoWAix62Q/2CdLwdCU9BqakE6HK4mOxqpTPaApJnCwmlkWClBe2e6+Y/6NJVpS/GLatIUz2xVQVif06MsfmPowJUEbyPUsFCiXlKFj77dkdGH09c/gLtgT3ghVgRCzUtXaI65cmJQ1gFRMjFmwyJS/tNazKUNe4kmJf+lMvyslHCIhUvBoaIp0szCj+xQMSNjK8kF7AG2YIzXW+BRiqYjLKGpNL08ZJQt6U7DREhmh/cfFF4QhQYXPlx0XenfoxYh/VTjg87LuzYuYO08GoMqm9QHMFrD0UhffnSAksN9XiMAdS3LWttYQjbserObBuG0AXxwhhkQ9uS5ZmlkhLhOMl88aelwjOQPL/LE17ud8KNV5EbEf8ligc2noZD8FwV3oUypObSDVUGmmBgfkbZejVVOgZwEm+zmEzepy6ykeA/xA14AoLUELvsBfC3RXnFgp1XaklO/jyFclqQG49xA906hMIYCOI1wgEh0H5SVanPtRYbu4yUDjizVKPLQJcXXwOcLEGKhDJM6cQ4ioZZSCjvcS9tEADrub5hJgbiArDD4hVU7polrboJRBJ8zpH2Mn3jCnt6tFJgDE3CibXD9U3nMoCpBMCtI+PcVC5Y4ZVCfSPgVqOP563zhM+vk+wER7D2ocvj0eff4Je0fQ85AphFKp5b7SUh0goUbuvkkOdh91rrHGmaDVYwqlFAJgUwTQaUocoj30RivMXM/6GYfp8XmR+g3FrHK4ROPADe4fzzvid4VBI8n/Yy5sGVbY9ajVdpogZfZUlisIijmu66MpGrfyIG5nsvFzWPu9XpoPMrqC/vt6ISHJgCK42sIYmfdcNt/A3Qr6NJq7pwWQZWM/6QmglzvZjcYcWw3lj3yV5aFbGfCH0rRCuSyClDef/1IpZ2QpCgqf4SKBP2T12Wl9wDylqVssvXzl/u98qaIZyZGowf9KTtLG/xhSNbmtglhCl3noXALCV0dZLSKHvldRHRT3ux+95icz2KUSYiodq1yUVqpf6itg7XbHH7aKT6ExuyfmDj5NuhLPK07e/SRTqKhGhDUaRB1ThfP+PJSpQWsMIHH8Fe82EMzDCrYmBe4fdKhtcRfKhUI//C8kfoidYxufLN6KjJbHyDHUl2YzX+PmQE9gtUB2kEuvHTkXu64nJW5WnZmRgcHo5DiztaH7Gx2q+ZxslumR200g6H2/ZioRMvB1LyHOAHsh5jL9cjwH/7I9wgV6CQ/QAR6IMEnRqTaY6/qeY/9FuYeH9JsLlEjTueDllB5iWMCTzn+uVZORp9bD1gUhd25EQzf3vw/arRzAAxm5oNVjlJh96ZPhO09QE6BlTg8MuOr/9Z0F0t4VDZifXqcfUMmht6HDLXN2yL0Omlj6Lbr6BS6S9u25eeUjuOM3MBXjb87Gtu3JC/ulH1jZsfWCNnjGOa85pJW4f8Ad9YY3J3xRW7k9uZu0ul27JS/0O1dPTm3GfY9t6nLIzwhSQf2q7Fsw8LS/2Obnx6K2agAQv+hZhbG5eJmyeNtRWQJlK5AvQwLE7QGAuADw89ktdHWZfRjd35BcVsb+KsVzHJWinpg9NUyynZUJSV9Y19Lf4YNokM+Hc/ec+EwKhFuwLVsUCb/3DTyp96SRvtHCSKmwz4ZS209VI9qAazpCwk4Nikyly1BDuCrv+dPuffQN/fqQjOwGGIvhxlx7dpatghsa6MEgsu0coVEvlU6csOJCRDlDgGS9+X+2x4PvnTx32sigbJb5f/Uh+3InjYQyfEsP3yVX5Q0xNSwVQPy1AujAFptn1ZdQPzCGxMGMs1z0e6jZXtb4KZoUJZwG/N0J4rdGkg6JMdoDenzgEyzFd8RjSGSKLqJvZoN7Bh0d2aWfAup4GeLLXSKr3sxqLz1UEj9TMHKic6RLzC/k2AfE5SA44eY+/77Sqjnww7BY6LigUkxD1D6Qqnqob0th6tnP7om/TpBAW2l9bxPvOlsNUayQqnQ0juGQx8P7It8FaJg2353z3uAinijrkz5vCwLQv1IIP6U3T6qjWmBSk7lsA092i8snEZEC4qFdJv9I7gICmuahTDBHw1Z0BOX3p6Cz0rLDsmybfMB4GB7te16ETFysTrLuSAqrMzdEQGc/08xRJeJWcYGrUIM2LvfKmYe/rCAX1ZPDarYlO8Az2C/qeJ9qd3qvaSsONioQSp+AsRyqPIITuKSatZjNAvtY7sE1tF67O7dIqlnDAdfS82UKy/tGD28ug7zG9TGPhZGS7um+1qkoZN/lec5VjjG4oiYVVBQfGqJy3aQiFKeQfTnoYzUlTDTecUMSrazwY6dIhN85fHit6iYo0jlUBWbfC0IDkBn1MXHi1vrh7E2zcioEWH2Hp5qey7uNSg6ct0pl6q2/l/6m9unJgK17+78yJuguJagkGxFYPVDdWQfKqpc5ebJEWXbgJWdCVT01PGxkACv1o6SpjNPSzHiiKXtN6qfE4wjknVjeTtYz/C0Pp9H4UiyDFYKuB64OM0SuOIHEm/2LN0CqW9kZ9TXsKXgUGhDznoAu7kekzU/nQjWcD0SNpTXzy7On1XsCID36xJ3xmmJowTsXFnR8ccn5LNDPplwnmauFlnMPu6noUpEET7lNAI5i/ube9Ys/iUeEXxoXUFHbFcKlsFMYFDUo0nUh61Lyb9Q2YNvCHAcgIioFge4kptnyINgg6KXUwmhFh2eGOzGTtzj9DxiyG5Ob6MKTCXNxz/RryjaNmRwVUlViOsnm7NbZUg70Iq5GFw3ObfXHl/RQWvjTvzTWGakXSC/lp5/OMs+VJ4wpLqdFdYbwSk4qeAlY+PSeFEuq3p8VgmCGZ6/LYl3a4SqSIkCEGp8sdQbceqS1XHcFjXmCNnGZ7BJYaFDDYnQEQsxaZZSvyQdQxM1JRnKVOgroCkUbG5hziJLGOvkyqj8GY0RSjt/Lj/UqFAcUpqdTyodd4AfVcg7Lt8C7PdRb9eJLwiUAYYYDOCXTvyO7FEs8rtcwt+DjykDvOKzvh5Fya6abYUz80jG1dF+/z1RO5VhhgM8vzqmXU/KeYg+zKrNFjJIgW0Unb55ErDRRBZp+VmNJSWQuYTXunvJwrKG6FASC0Ehs1Zhmwfc0UlRjsLfdVMHBR2XbYxHYYPGmNk+aS5AH64ihY7fpNEmXfmuB09QA54Agpu0vMZNUdmFFiWTnsb+B6MFAg+UqEuFpj+NrkeAdHCag+oUh4PXs6c3HJ+ArmnyZXgnBbbBeQcDY3ZkILuy8z+xO7Jz63RqlC1vmD41/0Rv68SgZyHzEVGsgcs1JaNraynb64QNOTO50dg616x2AboVFsnQSUAkqTNw+FmFQMOLsNtFRgKDGHHWcHBbNKh8QUZaebeb4LqQIOi2t1FwbXmZnYx2w77XTLXnpuEjO623sPD/Ve0du8A6APPjIvA6CGC7tpfqgNtEexrgPn7qR30fawV25TF2QJ1xPjd1urntOMEzHjV/z6iJPIxsdeo/prPKdL7Pphx7dQ3hD8zS2zd6v8XdTiqQxJE/tv2Wa6omuYzamrhiF02jpJBCsuzGnYLdaJTSi5xifiSdFn8RL2YlE3ny3GclJbb/e3M1Jm6/tV2xETGU6MyWsE8Vfgoh3Pk6UzckztZjdrSSia6q+OsnerHiLxJS9oFb+MfD+yHEXu6Xe+lNU/iBib/1NhXvgx6wPMerZsMx2VnefAZG9Fid7Nxv7c3gHM/MZxBDQx1Xvfarv0PzbsN69hBjcSTCSTRe86fA5ls58XPvzOI/lKDmWJZxqCaS2r6NFxJxt+RIB4wc82Nd0Iz5Q3W6N9XeKojf2Ge3ULpSGrVYVP32v3Wqlt6WLmvC+/dT90ktPK0IECIyBF54W9Rru2Sd5wll7UAbsV5/u96+HxP3+iz7FWhP8QqK4GDjzkebMthPc4lmaiJSUJcnooDf/eYsppEhczAJvSZZmIgBllkUlMPUi90gtkbpZu5Zurz+N5qpIGuudkgEqiO20UZcx0iWXZ/LYCR5rc7zRE9q8kqKiBSb6Yy7OLJSdDS3ECvTU5s/42DNg1cUhlhcNXfwJ0dePN5qTVlwJh4uihU9rMkxqQN5XtOD/ogU93nesC/OopPElCdl8CwHhK4VmKqpeL7HCIgPsgDSe3dWMozoy+lMbLqnke7hRig425fscYStBVFpL8IEYotgAJx4v1rxPiKq/LhgfkN6GZaGjFUO52sbai3+6EEj+ZMnHoG9ls+vCg9lBLADLQBR8IN6a4g+Rz2H15nom0HjljS+Ee2XQOFauVDR7CBat2Z/XiFpnWptwvJgk3y5ZyuBUo6wTRAD0g7d1e8sPpVn/JrsVAACvDBqLBkJS3mBfnGlPwzN1ITwBCW2/yeuVojQ50EoEF1vva6jpWZqUsMZ0LwN8di+EeukXOeELns3BsXYQmgiLuYBM90R6F3RhBJoVV5Qn+I6T+K/VU0FkSv44NoUh1g6gt0mN5KruYJhuoQeB+t87ZUNLCZYKt1CFt1ge9hKcjyKUXFbiGdaZkGtlx3KMd25X4JT6Hc1Y69wzvWP3XMPydrt52o7O6rG1POmpHGFHiV9tKxuoadY2KMsbCRFvIkZQv33tcks8QpbAfcn7LOCMR6xf4XblCytjIOE6uDEDNL3Ux5Vd0Uojz87bYAjOq0Z3AgIRuCXqp5qUteXECWbPo5rGXXBz4C+Ox7uTSQ9bFbQ1mXao1mFS1DGyeY2JmV/yv4qtZKDtyHTe2TCuxlnkkMYZqAkWxC2OuLxOp/HpwwQyqPJ7/o5+3K+qV6LyVjhNzGqHaYta8p5YF7YHEcCXfT5RupB9jvtmaWcskj6sTUcIRxu9c0VylnKqntNHjbHR9e/Umzx7ZB8Z04SvaGT+w9Y3FlD5yPut2qTQrNBelzkcebb2rM5EIc6mIFnwfZgGNzNh+3+LyPPcoamw6rywXamrBbD37A3l9TjRQoxO6eQyLbFqE7qp9IkiHZGT3JS8vHRJoAtdS+m1c7O45ocbenIe5iAwZKYB8/DTgzG34C1ftGeBpiD+wv33i30hNO7c4/gILozzcxOxN/2TtrNYK5lfJD+LOe4MLmcVWeTO2XtwQb5R0jHtsqMJKctclSsBnNJB3i/fJNaJ5xJaHwCbRr17EbE/ZQGbZkklfZmPZcuewubLNKAuCXtzEk7UtllbJMQJjAq4ezOv9DLfWRLp66g49LI7/VzI+qnpUKBBrlkQivRIINbFj+nqEoMkuSsMYYwFe3BBI7EedckpVHhNRZycBIeS29b+OM7jpNWAkaRBsBTA2Egv75fDcwWQWxgLWZdZx9brVoMeidXXvEErpx3kAYTFIKQTY1610TAWKDOe/RtJFC7D51R/u05YUTaNXYdKQQsQGEbXymNxmmsp0NYNJKDzpSwstwsKkkk8srppkYbdwb0eK6jT0vGY6A7iUk9J0ND9Q5DP4p19Gd+x1PS4pe1gzHxdvjgSEGq6PVr7Omo52DsB3zR5h3bQYStCtxWpHojEypUtrY1Zt80hDpGuhAfUvregRZDKHseB8neR1qoR42u5lpEKnOHSsSAzP9gXVPGhgizfAycmrZJ0Sh66xhO9ZrRF1bRLG7PlUbSlZxfPKpEiYKrHD5ltcTJhc1jW4cgT+ZzGiKLGhh/qR98nhlFrwgvdhkZ6YR0ZrVQbjWSbVWiCz/YDc76ShZiA2WzV14WhOnHjh9lcJkGgJMFRlKu8B8BOvM42/CT97ywdP92flH0l0f979H/vAEmGvTvraFxBCAFAai+Eag/xJ7yP94c+Hf0ywEx0rx/ZkY9dr1OXzjiWRYDHi52ma9PK2ZdQtaaaCTX1zSS3YkyZJlIkVKCwodVivpIwRmPAiHzt74O7S9nlddjioj7AKUF3s9FwIHhT8sFR8n+2UNaahD71lTu/UB7ORQA/SPkMyomRzumZmY8NYx/kxeqWKGmtzB7akcp6pPXJplRHhYm+jtM13FQNmXp593Zf4BElZVeZ0//3KZvRoAUUzmAnBaxTAehdRNEclo3zEVwZWNcw7KfOMK13e8ScTfNlEKsfWRLG/yX4talcB5b06i4Q03fWJ+APQS/tR0//IIQeehlkJCVPpQXZyLDKwGpiPgPI31bELZiFiv6LrvOEJVDGT5v6kEx+0cuwU15vApUA9kfMq0xj1AIE7mEaSSfL3qxyJjo4jqazf5PFHP6p61V41OCDHooZA0z1eeyjfB9bKJ0rRhZH2DS8rX5eZlr3hW74VOoNhae/JSTMjErlO6qD+5ad+uzdVIPvi4yOEIpSQobx1UAEGFCIalEfKb/ebivuRuejBCUpMmCSHGb79Ss8k0jbidUpYQDr0Xj2ZTfjMPVwVSPY6kbdpoIRYXjs2cnozzYkN6prD6XslfyllIlPVfwO4ab+OAx9+qvh/TiBz+4lYO0BzNjLqvF6aNcuuRGHNTO8Px1oZMEhBTCZqSWbB43QcNjJW5adtITyvliAQGCoYqxK+ZLe2OWfLdAtZRodqLOvYdu1dk7OTJYM8IaN/mHhz0lHp/F2ZSe3zZkJHZelIV6oyd8J6rjuwp2hne5uP4eeTtXFISC2+RKoB98+D5DksaH2J8gpHDgyYInYw8ekIrBYTSS+AqRvAWMDpKaVO/qsvCaV80miFVOpqDKMlcBmCnq6s4pW4ZUTIJriEP3Z21hdMvR2SO0av8lGNW6Vbl5m3wu0CgLxw2GCANWm3CBOmsMDUfEdxL/ytps487R8F/iWXPL3iGy5rA5IwJ3ijVUrLYB/eZ8pfWPjt/QNF+ZCFjbsIQFPdz7RPW1RteiQaMxyOI/bviK9LvyKlovD7amRp6ICwizjhHV1KNUHObxHqwZJvl6CwtmhTl3g+JKWA8btG6B4P8N6LeCwucOz7w2lkcaUqPkzL7jGaOMuUFw1yZRJkezE4FHZKbbJ8YHbtMGFu4BLGYuXPd1NcWHT3C2TpAvbFNfZVDcXHxiLzZwTUYMcbF2SwbTAUqpUz9jD33G5B7rzCrSnjpqxjnJT/K0T2MPhwnPXPa3OTAkm+Nw+SokC7kC48O2xyr660htUI5lchckWoavd/JJIOeo4ClKCIMYKXbG3Lgjwh/D7MkHyzmCJ0r+tZ8Dt1tj7Qje81dMWt2SUdtkQAoTrIc/w5taJuYlIpDvNT0G4lVKyk96tpxiBDj5BeBUKXN4g/ojlQimUFekgtt6Z+22RMfLAliaj53DwrxOL5rN8OHR0voTb9AY7i7LgZ+HXNOGz20llyAA/Iq0YTlLWzpLRAGMnaE3IrnxXuuXv4nwUDgjfi0tg0aRFKxD7aLoHbh8BkaGKm/Nh95rUiSxDq+YtV5hsvVR7J8/b10NBCunXpUnk1XDxlaAjPozgPiWe40SwW6P8ZIuMoEktJw+4KppxDb3gZi8T5YCzBCEdCTzAy4DiviOe/LwS1HvDK+XMPrWQw0OWSjLfLJycKoN9OT2rkMM1+Y/LTGbhK1rJXXfWZlYdiEYq9CvCE18Y4WfN2vas0NB0g/CR45ddcRAizjX+jby6X9S8gy70NkCLwSJuELYbKdOHXuRtMrYLMPHh4s6LTzbplDhyUIszGcf1dGa2QWxPksFbjcmvFkrUa/S0+a4Y5Vd0NKz6940bmXUfDSLaTlmpUzAxS7q5DxNb+yEDMNo/8IxGY616RwOMYsABVjDdZBxthVMbtbwoc1OZKX0Nq2cO6xbyBODv3L/9NYzglWS0ifC8p0XtA4MAsti4Jou2jW3nDj/9/MyfQ//CjlwcqJ7FnvNEE/8Jl4vCeREVmBvVzK1uDrWs7GcKZJ/w47whux1IEzVPvqbXgUVnOEAN1UX1b5RDr0AMkO/4AjOk7DxQXIB8AmGKHyKU7lkC/+p1C74kRsmOOhVaqQL5PpE5VW/0Yt62bpZdwoun4LR3K8ZUs7DcPsWBkcu/5felasufNOadoJk6CYwOphaVli0fC/rvQ7u8Y1yPXViFPO4o853IK91WdJZMszoik49x4/Gks7IWyI4i+zkdV2Zd0I2GpaM0ygTZAnrXT3fLasCuiWpgBWm2q5fiqTYuQvN8uJXbs+rryve183stZb9TBSFPuGc6sw0n68lXPd0L33+8hpbHETHmM4MtEtljDFA5Pvs+bfcq5x5gAYl8mBEhGbQM1ohavIRrgMg7o3Ksd82AS21W3GhGyc4+H8E0A40EtdGJEnz0dhWCu9CXvKHGmFkNrylU/3BjF4S7tfgQK87ji0HihppMSqvmQOMUIDSh2YYKhu8tx8E/w8+loZ65ZcENPJp6ILlBQktlRYaRwUpPay9unsbqvIP3TaOXEvP0X0/U8zhGwuHotIIS6Yra6nY6MwZ4Xhfj7atTDsyXh4RAarDNfbDoe6wXrPpyeKqHKjzlNWKVjknGKYaXpHLjfGkoelbp/zTniHlQJlXqR/ed/nnh3oY8gO02ZAdkBRpNPIVR3pkm7JYjKW4BoOdmKPx21A+dza/fo2uhBETWhh1cKUNWl7U91ueFmajiprub/G1AgP8Hsf5kck5+QrFXSYLCZRQ4w2DR0+IdjJae9GlvAbm8oCqyigf2E58YgmPZqsW2l4EE3hyLbR7ngGY25ah4QdHKWxumWR4s0j3DIit8ERcrWwNIFeQO5ZlJTPe16XAFiIB0ys0tAuWAUHGG0yaLtt2dz5KypI7H7ul/SCpFTahdwWriW2CsVsGWExIdCTHsOaI9g2Ekw3wYY35oE2A0gZqxkOTRLBQzbrNWtXc6WxM+FyiheJ6gtib2jRYyaya8I+FtjrnliZOnN4Id+3JIxpjticq0gotQ/X6szPJGUId+/rrY93M8QXJDzCYLvp3VXqOPRXyMZKgVv4cdu25uGxefZQLE/SHwMQSv0RHsYW/JO8LRvqcH+b+lvACYT6ohY7EDjceHn6nNMA2d6YLevFjWKd5dyxPufTV1+mH+ZR+AE4D7B2s21/cMjj3D8fu1MXfzJ3/1EL5ca2nEdMskNb8ouiIohZRjMFNDjJGPJONfhHIxZxOvOctfQBBOvtQwZeJkiIB4NuCYgl/Ja9or2rQwOma7oFE9BYJDKwzE1/TGovEjN845Nc/Lvshfz3g6Z+jocj+c4gAXtuEMx4ujAZDgw7JSOuqLTYQ3sH5tyKsJL9ktrABV1ftaYBRn4Y/fUIQmckieda01G92dwpZZfolhhhynbH3A8o+TVUpymprmMiAIaE4Tgf7Xyq/iMwlBOg9x36FE98YS0Z3+x6GmgLWXr8B5WOmgiE1oFN+qYN6EMZZPQbckzkq9uVWATF4TGNuOHwlR14m9pufgrmVLdFm91j/YKNauKhnxPVtvYSC630ymiukWIKuNcOsoaTSMcePUGvUR1dBabPQnG5xqKxZJwF+uyr0pI9UeWedZNkkjMUE4cFfxy6yEHM8nxEUQ3NGGCRjVcxP8lY9Nu3G3TrzXEY6WASpD48felKgkR9nsd+iNlyDiG5Pa9evxchJdRr+ciwh8lYZQ72T0U5hZj3/YrxF01Un+tsCpJrDw1IGabNQBPClcJ8b+ifNB5cAsjyS963VrcuIMWscAd6Yc92hnUMxf7FT1BWc2BINfFHyC3ejn1QjXCZPLH2hePcfGHB9CfxuMFYPwJDl6Tyce6rLp6pslh1ygdewkRq7c3Zqzk9gtcT1zVhbWpNlF/glASiprKna4ey4oYY1KG59cTX7t2PPKIfz2tTiYwcoQhFhsz57Z/R9r+pCYSRVlIsbaGUrg9I1dleG0dRVmIu+zgjD2bbsKlvs1ocTF3qPx36wmaaOMFIxHn5jIEn2VgLEoeDz0p35jeFogEB15LKUE9RW4ooLs8lA7I18a6eLHmSumKX4qXX1SNb9Nytbxy+jMvqNrKV4ZkboSx4dY8Cmqw/Em9pVhHXVVFkxGG8oESSXG0hMtPjXCsdL/F9mHc0cTUNZwooate6wSN5oFLRIHJpXwfs5oObzlbuVbm8fKVVErO5wNcS5owg7OfsaOFjou0P0/OyVPPHnGM9Cbpbi6+DtvpTqqlIzPng4wwz0/ZD6Pr4ELVElc+duWCwPRlBENqA1kd+lOjNQhkijxcUDGC7jw2A0l8ciY3kE/Kv492hwaGS8xN2cp1LAMuhCuYsiboVIqi3hmikBGnT3fbIK/UJyY2vuDXYUgs1XH1RlssU+rZ6KNewgLia1AozVf9u7Jkd2EpzQmTFu1+gqHEZr2U8z3trRLSlTU3lU2134UnFSGlDcqMZlLvFQpm/m88sEQXx5grMQr5ZL1cWz8izQ3REQwKrPl6YMX8G2nJDjTCMqNkK4AMl4zui0MGoW/8PEtTjzH0TnxwlOOYjv9zFUnWp9k3C5Cnk0M4Yf+5JZw8XmOncKERItTnI8DX5CgbJr93GwXTv0TvGkprzzK15D6owfPDcFvJLLDEOEpGY4eGFUEXDRPRldAvXzkrLcFwYN2J5vmh3JbTVQ9SmM+1ZIBpzn0ayr6M1wrO2RubPAxeDMU1O4RwFZcBex7Kdi1680yKjzw2OlWqsSln2NL0aeB3jiznWsd65vAdslJmfpMUW7b6BsUFy2XeId6ZXw1MO5SP8p9Klgl874K8KbXr7hKwMRg3Lu6r438VxTaznXfqstJyiPjtMD4Q1y1NrDT+92jiBX82n7+lwCJ7YBs0YoeWlJdM+VNvAch5EUspsXMgYsDb4tHxwAGQJW4fREkILGYonDzJXBx1CkMPORT84evYtzfq7emUC8r0QMucsajNOL/bHehyeXlqBqzRcS1YN8Oh6KgudGXxFURtf9+hEVMv0iA1oJYMFQHLpxtRgFTvEdy6x3WorpiBrKB8SCYyVhXOd6rwik+0kedWCXZV4AuOrPGPZse3b9doeupGHHBO0nL+Pt/9qMaVUlwi+ekKGtqZVKSq4uwEEQpXm1sCjFOKZ7SSm2UVwJzlEa/qBnE9nPyM7p1A+1hv+wJQzV9xMMoXie9D2w/hiFFgI9bNvp4KXxO3JaV1JwPiInkspTjHPzE6qi0yuaqgNYP5EGePadvLaDeEeC4+/R5RL1SFKLIIeVrs8SNMdXJcaN1hWySG04zmlxw29R1srb3+BxGJELvDVGQaetCbmsV1oBDKdhex7KNK/S76ovZn5D3kOvhMiPpoBeODVVOT27MIoxG6SNZT6b2Ws8Z3Rxp/WlDE454lWaXJLvKSs6ensfA2Tgrv595fXA8XsfF2/BRjKtXIv5V9P27PyyC6T0poCz39OleFefBypTwgnr4g1vpEU8LYsfBYJDtEZp+vslRKFdeVUEI0UVmJ1Ooog3wIbdB3j8UO6Dx8ls+841ebk2jo/emBuHkQhDEk1Vtqa+hHgeqq/RcU8WNG+DvnIfRvBjR5o2Yev5n1IkFodQTXlUkLHADbUXnEuyZu3MuH5N54ahF3C9i/chGmB6RTz2AOjCdQOZaRVinKzXXgcPOivw8OvyKa/gS2IW4u/UTKS9OKtKbSB00k7Bw4vR5/iLk5Rqw1uwPvtDWjmgQNOA42bA3kerpDCNr1JzZT3mydl0/2XbeMcH38GQ2qfFyBE9D0/gNLKCm40zQwYOD1t8skQAQeXB0nWLbL07XAWZH9EaONqvPSVvfXCjB5szsjMjAODvNcDxEdZwBYTspt6DueKzt9k3SfmEkgXXaDC8HJbAfSHwIsWbkXzFZ2XzQ7BbCVDMPfgyAtJYJvQOIRPjedQjTaf2KeGkLZYefMOo13NQiSFyNqMqhM0oCOhmHuXOJEZXCFR5daMwIfc5zniPyArveZ/C5EZRmyIxJK1N2JbVR67Njl0Z91vh4zU+ka8QVqf/tRtq3QFiaxzkEv7OxlwbgsoK0StVWjNahAWko+fnrJ+kTnjZp9g7JrbF3PxOy5vhwmwkiD5E9kJqMM1xu5W3pkup34SBMl2KGbEnvHwTK5QuCtBnhCcoJGq1/2aqwlD2gzVEDnmpoejxXyFTNu/m3E8PEDIBos3RBmjowtZgnw0JrEsfAdKkNaMoTywNYU64/R5rP3Mk7jOl13MoNwVGGKk42KFd1MtwjCm+luK6ajDD7mTv0FRXj1Xnx0tUetQ9ez8Xw3dnpQuNDDKvVKWpXKOF42KcntnqOYTAVCU2zUEux/5PqjnoffgjjjcwO0/zSRcSlHxD6aBaTkYZej6FQEMervaS0HXHXOE/X89W2yXOwJp37g6tEEgV+DLAllB+/YPOIPbioouLfpRIhWmhQiMzj5hhJR4FWiWp08mCsDhaGOJNkbbO6ah0MYtzjhtWYiP3qXNrSu+PknXv4UtlPC0PWQl4IrYZ8URKyACd4410M5xkW+6BHeRWrz1TD1zPAhfXNxC2ai4fBAKacpiidoDV41KK+2t1yOxR5/a//SR5abKqf6QJ9S7uQCzDzNePN67JMHQpGbF4c/R1gUpLAD58V69JKWQlpB2tBNeTVo2h6Ru28f79sXm/hyQ9L0oqwNaOIvSxJWzlQTkVm9QYwBRvJjWqQTKhc+2/lvJ+LkpVDhXm4fzwZq7Bu/VrZcrFQxdVX5C261B87Wws9eCy0dGgePCm/118A2ST+HVu89m4+5/eyQFDF9agTUI02uJ7SQlF5icKPmQOeiKxejTxVC/LX2bJ+Je9zkegRFJXPyNQbDtuP8yuhDwx8J2jipzIU4/4HeJFSgdCihKjMo+MuqPLK9CQlZJ+E4elZb35GlEcKS9xaCf0hbmnLQdUQW3ZriB38w1KwZjIK0bUOsdAB4VLPGT9Ma/hE4SC8SvuRuz2HQq2DcvwY5KVlRN5bt7nvEKElpNmKmeEl+DcVDeYR+Uq4NXOAp4CG5/9c9ffJDV5Q6eQQnPi8NStHDKcA6dp7pOoVy5B3hPFRE3vqKXP9J1yds+Z0c00sZl4yVQdWa7dr9COwY3tFmZrOPCpVzIh6sUldQSFUPqnQwCY7jGSNqBU9xe9aSVwf7diMizcmLzo0KwLXtH2dZ1qb1WN3WTWcWa99BS+f3OU+8WrZaIsx/wwORFGkSP+3S5EuLKxa4zUh7QSlj0EmlHBVWqzlxreF3RTM/k6CabUTqmzs6Em3l+Sft5/t0jqoSs1mpuxBVNAydnfhqeEj8RggF6qTAQxF2BO2JIIj4q+MdKDWqBxh0AmPJBdhQ7q/RBV5Nz+GE8sLN9pAvAh0eLTD8PcFzt5PjMng99X96z07lM2P7B9mg2zkzZwqDgaWSj4GBpnaEEAhPXRHNI8dX6HVwdV6fCPzclvSCVc0y4VAxJLMvoj/whELBmdetweQSnidhptVlR4zMFAofEAzJuqbYXk7wqsCPjhzgGZ5KxKInCGEv7kFmKzfUkKkmnvEzHDXHTwDwJDOhimlF8SYS68wzgIciYEL0E8fwyTesg15ZINrqKlDbTxbxBmIIk9P74lG/3jTWXxaSXa16Bxt5zktznxgn2gCYVXqI4L3fjK1Xq+RqRydsERysMLU7Wi+pODS6JpzErWzNupnw3nRGaFnByPXTSq53PwXztAgVRY7AhzijCgQtQk1M22zvQK/IRtaNJt8RGpA691Cw3eOnFDxLEHBqQpG2l8EeimBoioX87Lx/Qb0epeV6nPpdifaXSKmQzEo18D0w7/0SAuZlQ0XjFvruvx07/Gt+dTsRMjj58SWJzTPjd873osrIH4r+nbBYP4Kgknn5EOyj+cXbmbKvyV7Sbb8YmEPsc5IOR+PWLMeg4ZW1vQjMqwpge2pTLiyQq3JWUWzy296LiZiBXNFgaCh0JXHRxv9zOU0rz1tQa5mWpvjE7BdLoZHWkCcSqC0V3TiDwgK/V/wbzgEaBS3IH+k4bypKxbeoSjRGJIiFa6PNWRBjFYGm45oVGAJeKn1GYSdtgYJL+ajGvytv7r92Q7LVRKsy9JmMeBLpB0Z+4Uhi6JJfVOqCqo4ersHZi+1/JiKWA4Jbw7q4rEKXIQpXAgNdruFMxIlT8WbCvGFEeN29rRHaSuzbRPsJ1SEvom3vru/OI3dUSwtSctzyMNegAU0JN7Ju+Du4nT5r9ooR0c/0CgBf4r3r/y/UbAo4AzI9dNRi+XalvcWUefo0eaFX4nEU3Dq3Pt1wRu83U/gmWOVnQ8SvXA7Oik2mk1vHxHiVEIUOZK8SFiUJtKIsMxmEuj0om3zdTSPyc693l7H5He8qNdQ35hmdvd2Ap5Td/E9HKgUN0f8flT4aHrVMDqLU7q0Xq/j0lfvVFeuRGlmOiqBFMckChFhFvADrbi9AYlLIIOYWFjTOqLIBcnwgPLPqDakxPtYreqsnsqg1D0R50M5AhHDizgfsNd/GXQ+WYn1v/zq3bFK6MRc6GbO3GYBqcf5YtKKx2qEJDcZzgsd8dZSmU/oVnB9QQT0WqcCxHW5djwaLNbcVWrE9sRNde/NMX7QqC6QB0THGHpe7iXvGcik+XDyGdixBcOfo11wPNagNESlfK/hLYbuek2EmxDnG